/home/kboodhraj/NEMOGCM/NEMO/OPA_SRC/DIA/diawri_dimg.h90