/home/kboodhraj/NEMOGCM/NEMO/OPA_SRC/LDF/ldftra_c2d.h90