/home/kboodhraj/NEMOGCM/NEMO/OPA_SRC/SBC/tide.h90