/home/kboodhraj/NEMOGCM/NEMO/OPA_SRC/OBS/obssla_types.h90