/home/kboodhraj/NEMOGCM/NEMO/OPA_SRC/OBS/obsinter_h2d.h90