/home/kboodhraj/NEMOGCM/NEMO/OPA_SRC/OBS/maxdist.h90