/home/kboodhraj/NEMOGCM/NEMO/OPA_SRC/OBS/obs_conv_functions.h90