/home/kboodhraj/NEMOGCM/NEMO/OPA_SRC/ZDF/zdfddm_substitute.h90