/home/kboodhraj/NEMOGCM/NEMO/OPA_SRC/OBS/obs_level_search.h90