/home/kboodhraj/NEMOGCM/NEMO/OPA_SRC/OBS/greg2jul.h90