/home/kboodhraj/NEMOGCM/NEMO/OPA_SRC/OBS/linquad.h90