/home/kboodhraj/NEMOGCM/NEMO/OPA_SRC/OBS/obssla_io.h90