/Users/vichi/WORKS/OCEAN_MODELS/NEMO/SVN/nemo_3_6_stable/NEMOGCM/NEMO/OPA_SRC/OBS/find_obs_proc.h90