/Users/vichi/WORKS/OCEAN_MODELS/NEMO/SVN/nemo_3_6_stable/NEMOGCM/NEMO/OPA_SRC/OBS/obsvel_io.h90