/home/kboodhraj/NEMOGCM/NEMO/OPA_SRC/LBC/mppini_2.h90