/home/kboodhraj/NEMOGCM/NEMO/OPA_SRC/OBS/obssst_io.h90