/home/kboodhraj/NEMOGCM/NEMO/OPA_SRC/LDF/ldfdyn_c2d.h90