/home/kboodhraj/NEMOGCM/NEMO/OPA_SRC/LDF/ldfdyn_substitute.h90