/home/kboodhraj/NEMOGCM/NEMO/OPA_SRC/LDF/ldftra_substitute.h90