/home/kboodhraj/NEMOGCM/NEMO/OPA_SRC/OBS/obsvel_io.h90