/home/kboodhraj/NEMOGCM/NEMO/OPA_SRC/OBS/grt_cir_dis_saa.h90