/home/kboodhraj/NEMOGCM/NEMO/OPA_SRC/OBS/obsseaice_io.h90